Circuit: * Z:\home\eric\Documents\MADVLSI\Project\columnamplifier.asc

Direct Newton iteration for .op point succeeded.

Date: Sat Dec 01 17:07:21 2012
Total elapsed time: 0.083 seconds.

tnom = 27
temp = 27
method = modified trap
totiter = 2100
traniter = 2082
tranpoints = 1042
accept = 1042
rejected = 0
matrix size = 12
fillins = 0
solver = Normal
Matrix Compiler1: 428 bytes object code size  0.5/0.4/[0.3]
Matrix Compiler2: off  [0.3]/0.5/0.8


