Circuit: * Z:\home\eric\Documents\MADVLSI\Project\pixel.asc

Direct Newton iteration for .op point succeeded.
Heightened Def Con from 3.69638e-010 to 2.36964e-009
Heightened Def Con from 1e-005 to 1.00001e-005

Date: Thu Nov 29 11:35:10 2012
Total elapsed time: 0.277 seconds.

tnom = 27
temp = 27
method = modified trap
totiter = 14845
traniter = 14822
tranpoints = 5843
accept = 4828
rejected = 1017
matrix size = 12
fillins = 0
solver = Normal
Matrix Compiler1: 446 bytes object code size  0.3/0.2/[0.1]
Matrix Compiler2: off  [0.1]/0.5/0.4


